<additional>
	<inductionLoop id='L1_loop' lane='L1_0' pos='-10' freq='100' file="resultsOfDetectorsnew.xml"/>
	<inductionLoop id='RL1_loop' lane='RL1_0' pos='-10' freq='100' file="resultsOfDetectorsnew.xml"/>
	<inductionLoop id='RL2_loop' lane='RL2_0' pos='-10' freq='100' file="resultsOfDetectorsnew.xml"/>
	<inductionLoop id='R1_0loop' lane='R1_0' pos='-10' freq='100' file="resultsOfDetectorsnew.xml"/>
	<inductionLoop id='R1_1loop' lane='R1_1' pos='-10' freq='100' file="resultsOfDetectorsnew.xml"/>
	<inductionLoop id='R1_2loop' lane='R1_2' pos='-10' freq='100' file="resultsOfDetectorsnew.xml"/>
	<inductionLoop id='R2_0loop' lane='R2_0' pos='70' freq='100' file="resultsOfDetectorsnew.xml"/>
	<inductionLoop id='R2_1loop' lane='R2_1' pos='70' freq='100' file="resultsOfDetectorsnew.xml"/>
	<inductionLoop id='R2_2loop' lane='R2_2' pos='70' freq='100' file="resultsOfDetectorsnew.xml"/>
	<inductionLoop id='R2_3loop' lane='R2_0' pos='-10' freq='100' file="resultsOfDetectorsnew.xml"/>
	<inductionLoop id='R2_4loop' lane='R2_1' pos='-10' freq='100' file="resultsOfDetectorsnew.xml"/>
	<inductionLoop id='R2_5loop' lane='R2_2' pos='-10' freq='100' file="resultsOfDetectorsnew.xml"/>
	<inductionLoop id='R3_0loop' lane='R3_0' pos='10' freq='100' file="resultsOfDetectorsnew.xml"/>
	<inductionLoop id='R3_1loop' lane='R3_1' pos='10' freq='100' file="resultsOfDetectorsnew.xml"/>
	<inductionLoop id='R3_2loop' lane='R3_2' pos='10' freq='100' file="resultsOfDetectorsnew.xml"/>
	<inductionLoop id='R3_3loop' lane='R3_3' pos='10' freq='100' file="resultsOfDetectorsnew.xml"/>
	<inductionLoop id='R3_4loop' lane='R3_0' pos='45' freq='100' file="resultsOfDetectorsnew.xml"/>
	<inductionLoop id='R3_5loop' lane='R3_1' pos='45' freq='100' file="resultsOfDetectorsnew.xml"/>
	<inductionLoop id='R3_6loop' lane='R3_2' pos='45' freq='100' file="resultsOfDetectorsnew.xml"/>
	<inductionLoop id='R3_7loop' lane='R3_3' pos='45' freq='100' file="resultsOfDetectorsnew.xml"/>
	<inductionLoop id='R3_8loop' lane='R3_0' pos='-80' freq='100' file="resultsOfDetectorsnew.xml"/>
	<inductionLoop id='R3_9loop' lane='R3_1' pos='-80' freq='100' file="resultsOfDetectorsnew.xml"/>
	<inductionLoop id='R3_10loop' lane='R3_2' pos='-80' freq='100' file="resultsOfDetectorsnew.xml"/>
	<inductionLoop id='R3_11loop' lane='R3_3' pos='-80' freq='100' file="resultsOfDetectorsnew.xml"/>
	<inductionLoop id='R3_12loop' lane='R3_0' pos='-45' freq='100' file="resultsOfDetectorsnew.xml"/>
	<inductionLoop id='R3_13loop' lane='R3_1' pos='-45' freq='100' file="resultsOfDetectorsnew.xml"/>
	<inductionLoop id='R3_14loop' lane='R3_2' pos='-45' freq='100' file="resultsOfDetectorsnew.xml"/>
	<inductionLoop id='R3_15loop' lane='R3_3' pos='-45' freq='100' file="resultsOfDetectorsnew.xml"/>
	<inductionLoop id='R3_16loop' lane='R3_0' pos='-10' freq='100' file="resultsOfDetectorsnew.xml"/>
	<inductionLoop id='R3_17loop' lane='R3_1' pos='-10' freq='100' file="resultsOfDetectorsnew.xml"/>
	<inductionLoop id='R3_18loop' lane='R3_2' pos='-10' freq='100' file="resultsOfDetectorsnew.xml"/>
	<inductionLoop id='R3_19loop' lane='R3_3' pos='-10' freq='100' file="resultsOfDetectorsnew.xml"/>
    <inductionLoop id='R4_0loop' lane='R4_0' pos='10' freq='100' file="resultsOfDetectorsnew.xml"/>
	<inductionLoop id='R4_1loop' lane='R4_1' pos='10' freq='100' file="resultsOfDetectorsnew.xml"/>
	<inductionLoop id='R4_2loop' lane='R4_2' pos='10' freq='100' file="resultsOfDetectorsnew.xml"/>
	<inductionLoop id='R4_3loop' lane='R4_3' pos='10' freq='100' file="resultsOfDetectorsnew.xml"/>
	<inductionLoop id='R4_4loop' lane='R4_0' pos='60' freq='100' file="resultsOfDetectorsnew.xml"/>
	<inductionLoop id='R4_5loop' lane='R4_1' pos='60' freq='100' file="resultsOfDetectorsnew.xml"/>
	<inductionLoop id='R4_6loop' lane='R4_2' pos='60' freq='100' file="resultsOfDetectorsnew.xml"/>
	<inductionLoop id='R4_7loop' lane='R3_3' pos='60' freq='100' file="resultsOfDetectorsnew.xml"/>
	<inductionLoop id='R4_8loop' lane='R4_0' pos='110' freq='100' file="resultsOfDetectorsnew.xml"/>
	<inductionLoop id='R4_9loop' lane='R4_1' pos='110' freq='100' file="resultsOfDetectorsnew.xml"/>
	<inductionLoop id='R4_10loop' lane='R4_2' pos='110' freq='100' file="resultsOfDetectorsnew.xml"/>
	<inductionLoop id='R4_11loop' lane='R4_3' pos='110' freq='100' file="resultsOfDetectorsnew.xml"/>
	<inductionLoop id='R4_12loop' lane='R4_0' pos='-150' freq='100' file="resultsOfDetectorsnew.xml"/>
	<inductionLoop id='R4_13loop' lane='R4_1' pos='-150' freq='100' file="resultsOfDetectorsnew.xml"/>
	<inductionLoop id='R4_14loop' lane='R4_2' pos='-150' freq='100' file="resultsOfDetectorsnew.xml"/>
	<inductionLoop id='R4_15loop' lane='R4_3' pos='-150' freq='100' file="resultsOfDetectorsnew.xml"/>
	<inductionLoop id='R4_16loop' lane='R4_0' pos='-50' freq='100' file="resultsOfDetectorsnew.xml"/>
	<inductionLoop id='R4_17loop' lane='R4_1' pos='-50' freq='100' file="resultsOfDetectorsnew.xml"/>
	<inductionLoop id='R4_18loop' lane='R4_2' pos='-50' freq='100' file="resultsOfDetectorsnew.xml"/>
	<inductionLoop id='R4_19loop' lane='R4_3' pos='-50' freq='100' file="resultsOfDetectorsnew.xml"/>
	<inductionLoop id='RL3_loop' lane='RL3_0' pos='10' freq='100' file="resultsOfDetectorsnew.xml"/>
    <inductionLoop id='R5_0loop' lane='R5_0' pos='10' freq='100' file="resultsOfDetectorsnew.xml"/>
	<inductionLoop id='R5_1loop' lane='R5_1' pos='10' freq='100' file="resultsOfDetectorsnew.xml"/>
	<inductionLoop id='R5_2loop' lane='R5_2' pos='10' freq='100' file="resultsOfDetectorsnew.xml"/>
</additional>